
---------- Begin Simulation Statistics ----------
sim_seconds                                  5.173912                       # Number of seconds simulated
sim_ticks                                5173911927500                       # Number of ticks simulated
final_tick                               5173911927500                       # Number of ticks from beginning of simulation (restored from checkpoints and never reset)
sim_freq                                 1000000000000                       # Frequency of simulated ticks
host_inst_rate                                  74995                       # Simulator instruction rate (inst/s)
host_op_rate                                   148660                       # Simulator op (including micro ops) rate (op/s)
host_tick_rate                              749986548                       # Simulator tick rate (ticks/s)
host_mem_usage                                1368660                       # Number of bytes of host memory used
host_seconds                                  6898.67                       # Real time elapsed on the host
sim_insts                                   517367672                       # Number of instructions simulated
sim_ops                                    1025556037                       # Number of ops (including micro ops) simulated
system.voltage_domain.voltage                       1                       # Voltage in Volts
system.clk_domain.clock                          1000                       # Clock period in ticks
system.mem_ctrls00.bytes_read::ruby.dir_cntrl0     20960128                       # Number of bytes read from this memory
system.mem_ctrls00.bytes_read::total         20960128                       # Number of bytes read from this memory
system.mem_ctrls00.bytes_written::ruby.dir_cntrl0     21006592                       # Number of bytes written to this memory
system.mem_ctrls00.bytes_written::total      21006592                       # Number of bytes written to this memory
system.mem_ctrls00.num_reads::ruby.dir_cntrl0       327502                       # Number of read requests responded to by this memory
system.mem_ctrls00.num_reads::total            327502                       # Number of read requests responded to by this memory
system.mem_ctrls00.num_writes::ruby.dir_cntrl0       328228                       # Number of write requests responded to by this memory
system.mem_ctrls00.num_writes::total           328228                       # Number of write requests responded to by this memory
system.mem_ctrls00.bw_read::ruby.dir_cntrl0      4051118                       # Total read bandwidth from this memory (bytes/s)
system.mem_ctrls00.bw_read::total             4051118                       # Total read bandwidth from this memory (bytes/s)
system.mem_ctrls00.bw_write::ruby.dir_cntrl0      4060098                       # Write bandwidth from this memory (bytes/s)
system.mem_ctrls00.bw_write::total            4060098                       # Write bandwidth from this memory (bytes/s)
system.mem_ctrls00.bw_total::ruby.dir_cntrl0      8111217                       # Total bandwidth to/from this memory (bytes/s)
system.mem_ctrls00.bw_total::total            8111217                       # Total bandwidth to/from this memory (bytes/s)
system.mem_ctrls00.readReqs                    327502                       # Number of read requests accepted
system.mem_ctrls00.writeReqs                   328228                       # Number of write requests accepted
system.mem_ctrls00.readBursts                  327502                       # Number of DRAM read bursts, including those serviced by the write queue
system.mem_ctrls00.writeBursts                 328228                       # Number of DRAM write bursts, including those merged in the write queue
system.mem_ctrls00.bytesReadDRAM             15752448                       # Total number of bytes read from DRAM
system.mem_ctrls00.bytesReadWrQ               5207680                       # Total number of bytes read from write queue
system.mem_ctrls00.bytesWritten              18161664                       # Total number of bytes written to DRAM
system.mem_ctrls00.bytesReadSys              20960128                       # Total read bytes from the system interface side
system.mem_ctrls00.bytesWrittenSys           21006592                       # Total written bytes from the system interface side
system.mem_ctrls00.servicedByWrQ                81370                       # Number of DRAM read bursts serviced by the write queue
system.mem_ctrls00.mergedWrBursts               44422                       # Number of DRAM write bursts merged with an existing one
system.mem_ctrls00.neitherReadNorWriteReqs            0                       # Number of requests that are neither read nor write
system.mem_ctrls00.perBankRdBursts::0           20214                       # Per bank write bursts
system.mem_ctrls00.perBankRdBursts::1           29931                       # Per bank write bursts
system.mem_ctrls00.perBankRdBursts::2           13330                       # Per bank write bursts
system.mem_ctrls00.perBankRdBursts::3           10906                       # Per bank write bursts
system.mem_ctrls00.perBankRdBursts::4           19945                       # Per bank write bursts
system.mem_ctrls00.perBankRdBursts::5           13529                       # Per bank write bursts
system.mem_ctrls00.perBankRdBursts::6            6278                       # Per bank write bursts
system.mem_ctrls00.perBankRdBursts::7           14181                       # Per bank write bursts
system.mem_ctrls00.perBankRdBursts::8           25563                       # Per bank write bursts
system.mem_ctrls00.perBankRdBursts::9           18816                       # Per bank write bursts
system.mem_ctrls00.perBankRdBursts::10          11336                       # Per bank write bursts
system.mem_ctrls00.perBankRdBursts::11          15975                       # Per bank write bursts
system.mem_ctrls00.perBankRdBursts::12          19358                       # Per bank write bursts
system.mem_ctrls00.perBankRdBursts::13           7072                       # Per bank write bursts
system.mem_ctrls00.perBankRdBursts::14          12402                       # Per bank write bursts
system.mem_ctrls00.perBankRdBursts::15           7296                       # Per bank write bursts
system.mem_ctrls00.perBankWrBursts::0           24921                       # Per bank write bursts
system.mem_ctrls00.perBankWrBursts::1           33962                       # Per bank write bursts
system.mem_ctrls00.perBankWrBursts::2           16758                       # Per bank write bursts
system.mem_ctrls00.perBankWrBursts::3           13762                       # Per bank write bursts
system.mem_ctrls00.perBankWrBursts::4           22899                       # Per bank write bursts
system.mem_ctrls00.perBankWrBursts::5           16119                       # Per bank write bursts
system.mem_ctrls00.perBankWrBursts::6            6763                       # Per bank write bursts
system.mem_ctrls00.perBankWrBursts::7           16234                       # Per bank write bursts
system.mem_ctrls00.perBankWrBursts::8           28269                       # Per bank write bursts
system.mem_ctrls00.perBankWrBursts::9           19566                       # Per bank write bursts
system.mem_ctrls00.perBankWrBursts::10          13099                       # Per bank write bursts
system.mem_ctrls00.perBankWrBursts::11          20168                       # Per bank write bursts
system.mem_ctrls00.perBankWrBursts::12          22458                       # Per bank write bursts
system.mem_ctrls00.perBankWrBursts::13           7569                       # Per bank write bursts
system.mem_ctrls00.perBankWrBursts::14          13238                       # Per bank write bursts
system.mem_ctrls00.perBankWrBursts::15           7991                       # Per bank write bursts
system.mem_ctrls00.numRdRetry                       0                       # Number of times read queue was full causing retry
system.mem_ctrls00.numWrRetry                       0                       # Number of times write queue was full causing retry
system.mem_ctrls00.totGap                5173910764000                       # Total gap between requests
system.mem_ctrls00.readPktSize::0                   0                       # Read request sizes (log2)
system.mem_ctrls00.readPktSize::1                   0                       # Read request sizes (log2)
system.mem_ctrls00.readPktSize::2                   0                       # Read request sizes (log2)
system.mem_ctrls00.readPktSize::3                   0                       # Read request sizes (log2)
system.mem_ctrls00.readPktSize::4                   0                       # Read request sizes (log2)
system.mem_ctrls00.readPktSize::5                   0                       # Read request sizes (log2)
system.mem_ctrls00.readPktSize::6              327502                       # Read request sizes (log2)
system.mem_ctrls00.writePktSize::0                  0                       # Write request sizes (log2)
system.mem_ctrls00.writePktSize::1                  0                       # Write request sizes (log2)
system.mem_ctrls00.writePktSize::2                  0                       # Write request sizes (log2)
system.mem_ctrls00.writePktSize::3                  0                       # Write request sizes (log2)
system.mem_ctrls00.writePktSize::4                  0                       # Write request sizes (log2)
system.mem_ctrls00.writePktSize::5                  0                       # Write request sizes (log2)
system.mem_ctrls00.writePktSize::6             328228                       # Write request sizes (log2)
system.mem_ctrls00.rdQLenPdf::0                239327                       # What read queue length does an incoming req see
system.mem_ctrls00.rdQLenPdf::1                  6682                       # What read queue length does an incoming req see
system.mem_ctrls00.rdQLenPdf::2                   121                       # What read queue length does an incoming req see
system.mem_ctrls00.rdQLenPdf::3                     2                       # What read queue length does an incoming req see
system.mem_ctrls00.rdQLenPdf::4                     0                       # What read queue length does an incoming req see
system.mem_ctrls00.rdQLenPdf::5                     0                       # What read queue length does an incoming req see
system.mem_ctrls00.rdQLenPdf::6                     0                       # What read queue length does an incoming req see
system.mem_ctrls00.rdQLenPdf::7                     0                       # What read queue length does an incoming req see
system.mem_ctrls00.rdQLenPdf::8                     0                       # What read queue length does an incoming req see
system.mem_ctrls00.rdQLenPdf::9                     0                       # What read queue length does an incoming req see
system.mem_ctrls00.rdQLenPdf::10                    0                       # What read queue length does an incoming req see
system.mem_ctrls00.rdQLenPdf::11                    0                       # What read queue length does an incoming req see
system.mem_ctrls00.rdQLenPdf::12                    0                       # What read queue length does an incoming req see
system.mem_ctrls00.rdQLenPdf::13                    0                       # What read queue length does an incoming req see
system.mem_ctrls00.rdQLenPdf::14                    0                       # What read queue length does an incoming req see
system.mem_ctrls00.rdQLenPdf::15                    0                       # What read queue length does an incoming req see
system.mem_ctrls00.rdQLenPdf::16                    0                       # What read queue length does an incoming req see
system.mem_ctrls00.rdQLenPdf::17                    0                       # What read queue length does an incoming req see
system.mem_ctrls00.rdQLenPdf::18                    0                       # What read queue length does an incoming req see
system.mem_ctrls00.rdQLenPdf::19                    0                       # What read queue length does an incoming req see
system.mem_ctrls00.rdQLenPdf::20                    0                       # What read queue length does an incoming req see
system.mem_ctrls00.rdQLenPdf::21                    0                       # What read queue length does an incoming req see
system.mem_ctrls00.rdQLenPdf::22                    0                       # What read queue length does an incoming req see
system.mem_ctrls00.rdQLenPdf::23                    0                       # What read queue length does an incoming req see
system.mem_ctrls00.rdQLenPdf::24                    0                       # What read queue length does an incoming req see
system.mem_ctrls00.rdQLenPdf::25                    0                       # What read queue length does an incoming req see
system.mem_ctrls00.rdQLenPdf::26                    0                       # What read queue length does an incoming req see
system.mem_ctrls00.rdQLenPdf::27                    0                       # What read queue length does an incoming req see
system.mem_ctrls00.rdQLenPdf::28                    0                       # What read queue length does an incoming req see
system.mem_ctrls00.rdQLenPdf::29                    0                       # What read queue length does an incoming req see
system.mem_ctrls00.rdQLenPdf::30                    0                       # What read queue length does an incoming req see
system.mem_ctrls00.rdQLenPdf::31                    0                       # What read queue length does an incoming req see
system.mem_ctrls00.wrQLenPdf::0                     1                       # What write queue length does an incoming req see
system.mem_ctrls00.wrQLenPdf::1                     1                       # What write queue length does an incoming req see
system.mem_ctrls00.wrQLenPdf::2                     1                       # What write queue length does an incoming req see
system.mem_ctrls00.wrQLenPdf::3                     1                       # What write queue length does an incoming req see
system.mem_ctrls00.wrQLenPdf::4                     1                       # What write queue length does an incoming req see
system.mem_ctrls00.wrQLenPdf::5                     1                       # What write queue length does an incoming req see
system.mem_ctrls00.wrQLenPdf::6                     1                       # What write queue length does an incoming req see
system.mem_ctrls00.wrQLenPdf::7                     1                       # What write queue length does an incoming req see
system.mem_ctrls00.wrQLenPdf::8                     1                       # What write queue length does an incoming req see
system.mem_ctrls00.wrQLenPdf::9                     1                       # What write queue length does an incoming req see
system.mem_ctrls00.wrQLenPdf::10                    1                       # What write queue length does an incoming req see
system.mem_ctrls00.wrQLenPdf::11                    1                       # What write queue length does an incoming req see
system.mem_ctrls00.wrQLenPdf::12                    1                       # What write queue length does an incoming req see
system.mem_ctrls00.wrQLenPdf::13                    1                       # What write queue length does an incoming req see
system.mem_ctrls00.wrQLenPdf::14                    1                       # What write queue length does an incoming req see
system.mem_ctrls00.wrQLenPdf::15                13990                       # What write queue length does an incoming req see
system.mem_ctrls00.wrQLenPdf::16                14188                       # What write queue length does an incoming req see
system.mem_ctrls00.wrQLenPdf::17                15156                       # What write queue length does an incoming req see
system.mem_ctrls00.wrQLenPdf::18                16007                       # What write queue length does an incoming req see
system.mem_ctrls00.wrQLenPdf::19                16073                       # What write queue length does an incoming req see
system.mem_ctrls00.wrQLenPdf::20                16063                       # What write queue length does an incoming req see
system.mem_ctrls00.wrQLenPdf::21                16050                       # What write queue length does an incoming req see
system.mem_ctrls00.wrQLenPdf::22                16093                       # What write queue length does an incoming req see
system.mem_ctrls00.wrQLenPdf::23                16041                       # What write queue length does an incoming req see
system.mem_ctrls00.wrQLenPdf::24                16059                       # What write queue length does an incoming req see
system.mem_ctrls00.wrQLenPdf::25                16115                       # What write queue length does an incoming req see
system.mem_ctrls00.wrQLenPdf::26                16098                       # What write queue length does an incoming req see
system.mem_ctrls00.wrQLenPdf::27                16027                       # What write queue length does an incoming req see
system.mem_ctrls00.wrQLenPdf::28                15974                       # What write queue length does an incoming req see
system.mem_ctrls00.wrQLenPdf::29                15985                       # What write queue length does an incoming req see
system.mem_ctrls00.wrQLenPdf::30                15945                       # What write queue length does an incoming req see
system.mem_ctrls00.wrQLenPdf::31                15948                       # What write queue length does an incoming req see
system.mem_ctrls00.wrQLenPdf::32                15946                       # What write queue length does an incoming req see
system.mem_ctrls00.wrQLenPdf::33                   29                       # What write queue length does an incoming req see
system.mem_ctrls00.wrQLenPdf::34                    4                       # What write queue length does an incoming req see
system.mem_ctrls00.wrQLenPdf::35                    0                       # What write queue length does an incoming req see
system.mem_ctrls00.wrQLenPdf::36                    0                       # What write queue length does an incoming req see
system.mem_ctrls00.wrQLenPdf::37                    0                       # What write queue length does an incoming req see
system.mem_ctrls00.wrQLenPdf::38                    0                       # What write queue length does an incoming req see
system.mem_ctrls00.wrQLenPdf::39                    0                       # What write queue length does an incoming req see
system.mem_ctrls00.wrQLenPdf::40                    0                       # What write queue length does an incoming req see
system.mem_ctrls00.wrQLenPdf::41                    0                       # What write queue length does an incoming req see
system.mem_ctrls00.wrQLenPdf::42                    0                       # What write queue length does an incoming req see
system.mem_ctrls00.wrQLenPdf::43                    0                       # What write queue length does an incoming req see
system.mem_ctrls00.wrQLenPdf::44                    0                       # What write queue length does an incoming req see
system.mem_ctrls00.wrQLenPdf::45                    0                       # What write queue length does an incoming req see
system.mem_ctrls00.wrQLenPdf::46                    0                       # What write queue length does an incoming req see
system.mem_ctrls00.wrQLenPdf::47                    0                       # What write queue length does an incoming req see
system.mem_ctrls00.wrQLenPdf::48                    0                       # What write queue length does an incoming req see
system.mem_ctrls00.wrQLenPdf::49                    0                       # What write queue length does an incoming req see
system.mem_ctrls00.wrQLenPdf::50                    0                       # What write queue length does an incoming req see
system.mem_ctrls00.wrQLenPdf::51                    0                       # What write queue length does an incoming req see
system.mem_ctrls00.wrQLenPdf::52                    0                       # What write queue length does an incoming req see
system.mem_ctrls00.wrQLenPdf::53                    0                       # What write queue length does an incoming req see
system.mem_ctrls00.wrQLenPdf::54                    0                       # What write queue length does an incoming req see
system.mem_ctrls00.wrQLenPdf::55                    0                       # What write queue length does an incoming req see
system.mem_ctrls00.wrQLenPdf::56                    0                       # What write queue length does an incoming req see
system.mem_ctrls00.wrQLenPdf::57                    0                       # What write queue length does an incoming req see
system.mem_ctrls00.wrQLenPdf::58                    0                       # What write queue length does an incoming req see
system.mem_ctrls00.wrQLenPdf::59                    0                       # What write queue length does an incoming req see
system.mem_ctrls00.wrQLenPdf::60                    0                       # What write queue length does an incoming req see
system.mem_ctrls00.wrQLenPdf::61                    0                       # What write queue length does an incoming req see
system.mem_ctrls00.wrQLenPdf::62                    0                       # What write queue length does an incoming req see
system.mem_ctrls00.wrQLenPdf::63                    0                       # What write queue length does an incoming req see
system.mem_ctrls00.bytesPerActivate::samples       247944                       # Bytes accessed per row activation
system.mem_ctrls00.bytesPerActivate::mean   136.781080                       # Bytes accessed per row activation
system.mem_ctrls00.bytesPerActivate::gmean   104.846176                       # Bytes accessed per row activation
system.mem_ctrls00.bytesPerActivate::stdev   140.497396                       # Bytes accessed per row activation
system.mem_ctrls00.bytesPerActivate::0-127       135678     54.72%     54.72% # Bytes accessed per row activation
system.mem_ctrls00.bytesPerActivate::128-255        79309     31.99%     86.71% # Bytes accessed per row activation
system.mem_ctrls00.bytesPerActivate::256-383        18729      7.55%     94.26% # Bytes accessed per row activation
system.mem_ctrls00.bytesPerActivate::384-511         7055      2.85%     97.11% # Bytes accessed per row activation
system.mem_ctrls00.bytesPerActivate::512-639         2585      1.04%     98.15% # Bytes accessed per row activation
system.mem_ctrls00.bytesPerActivate::640-767         1150      0.46%     98.61% # Bytes accessed per row activation
system.mem_ctrls00.bytesPerActivate::768-895          537      0.22%     98.83% # Bytes accessed per row activation
system.mem_ctrls00.bytesPerActivate::896-1023          412      0.17%     99.00% # Bytes accessed per row activation
system.mem_ctrls00.bytesPerActivate::1024-1151         2489      1.00%    100.00% # Bytes accessed per row activation
system.mem_ctrls00.bytesPerActivate::total       247944                       # Bytes accessed per row activation
system.mem_ctrls00.rdPerTurnAround::samples        15943                       # Reads before turning the bus around for writes
system.mem_ctrls00.rdPerTurnAround::mean    15.437872                       # Reads before turning the bus around for writes
system.mem_ctrls00.rdPerTurnAround::stdev     3.667307                       # Reads before turning the bus around for writes
system.mem_ctrls00.rdPerTurnAround::0-3            52      0.33%      0.33% # Reads before turning the bus around for writes
system.mem_ctrls00.rdPerTurnAround::4-7           339      2.13%      2.45% # Reads before turning the bus around for writes
system.mem_ctrls00.rdPerTurnAround::8-11         1500      9.41%     11.86% # Reads before turning the bus around for writes
system.mem_ctrls00.rdPerTurnAround::12-15         5508     34.55%     46.41% # Reads before turning the bus around for writes
system.mem_ctrls00.rdPerTurnAround::16-19         7689     48.23%     94.64% # Reads before turning the bus around for writes
system.mem_ctrls00.rdPerTurnAround::20-23          558      3.50%     98.14% # Reads before turning the bus around for writes
system.mem_ctrls00.rdPerTurnAround::24-27          199      1.25%     99.39% # Reads before turning the bus around for writes
system.mem_ctrls00.rdPerTurnAround::28-31           43      0.27%     99.66% # Reads before turning the bus around for writes
system.mem_ctrls00.rdPerTurnAround::32-35           22      0.14%     99.79% # Reads before turning the bus around for writes
system.mem_ctrls00.rdPerTurnAround::36-39           23      0.14%     99.94% # Reads before turning the bus around for writes
system.mem_ctrls00.rdPerTurnAround::40-43            9      0.06%     99.99% # Reads before turning the bus around for writes
system.mem_ctrls00.rdPerTurnAround::64-67            1      0.01%    100.00% # Reads before turning the bus around for writes
system.mem_ctrls00.rdPerTurnAround::total        15943                       # Reads before turning the bus around for writes
system.mem_ctrls00.wrPerTurnAround::samples        15943                       # Writes before turning the bus around for reads
system.mem_ctrls00.wrPerTurnAround::mean    17.799410                       # Writes before turning the bus around for reads
system.mem_ctrls00.wrPerTurnAround::gmean    17.785953                       # Writes before turning the bus around for reads
system.mem_ctrls00.wrPerTurnAround::stdev     0.674951                       # Writes before turning the bus around for reads
system.mem_ctrls00.wrPerTurnAround::16           1786     11.20%     11.20% # Writes before turning the bus around for reads
system.mem_ctrls00.wrPerTurnAround::17            153      0.96%     12.16% # Writes before turning the bus around for reads
system.mem_ctrls00.wrPerTurnAround::18          13515     84.77%     96.93% # Writes before turning the bus around for reads
system.mem_ctrls00.wrPerTurnAround::19            453      2.84%     99.77% # Writes before turning the bus around for reads
system.mem_ctrls00.wrPerTurnAround::20             34      0.21%     99.99% # Writes before turning the bus around for reads
system.mem_ctrls00.wrPerTurnAround::21              2      0.01%    100.00% # Writes before turning the bus around for reads
system.mem_ctrls00.wrPerTurnAround::total        15943                       # Writes before turning the bus around for reads
system.mem_ctrls00.totQLat                 3187930500                       # Total ticks spent queuing
system.mem_ctrls00.totMemAccLat            7802905500                       # Total ticks spent from burst creation until serviced by the DRAM
system.mem_ctrls00.totBusLat               1230660000                       # Total ticks spent in databus transfers
system.mem_ctrls00.avgQLat                   12952.12                       # Average queueing delay per DRAM burst
system.mem_ctrls00.avgBusLat                  5000.00                       # Average bus latency per DRAM burst
system.mem_ctrls00.avgMemAccLat              31702.12                       # Average memory access latency per DRAM burst
system.mem_ctrls00.avgRdBW                       3.04                       # Average DRAM read bandwidth in MiByte/s
system.mem_ctrls00.avgWrBW                       3.51                       # Average achieved write bandwidth in MiByte/s
system.mem_ctrls00.avgRdBWSys                    4.05                       # Average system read bandwidth in MiByte/s
system.mem_ctrls00.avgWrBWSys                    4.06                       # Average system write bandwidth in MiByte/s
system.mem_ctrls00.peakBW                    12800.00                       # Theoretical peak bandwidth in MiByte/s
system.mem_ctrls00.busUtil                       0.05                       # Data bus utilization in percentage
system.mem_ctrls00.busUtilRead                   0.02                       # Data bus utilization in percentage for reads
system.mem_ctrls00.busUtilWrite                  0.03                       # Data bus utilization in percentage for writes
system.mem_ctrls00.avgRdQLen                     1.00                       # Average read queue length when enqueuing
system.mem_ctrls00.avgWrQLen                    27.58                       # Average write queue length when enqueuing
system.mem_ctrls00.readRowHits                 103860                       # Number of row buffer hits during reads
system.mem_ctrls00.writeRowHits                178103                       # Number of row buffer hits during writes
system.mem_ctrls00.readRowHitRate               42.20                       # Row buffer hit rate for reads
system.mem_ctrls00.writeRowHitRate              62.76                       # Row buffer hit rate for writes
system.mem_ctrls00.avgGap                  7890306.63                       # Average gap between requests
system.mem_ctrls00.pageHitRate                  53.21                       # Row buffer hit rate, read and write combined
system.mem_ctrls00_0.actEnergy             1011860640                       # Energy for activate commands per rank (pJ)
system.mem_ctrls00_0.preEnergy              552106500                       # Energy for precharge commands per rank (pJ)
system.mem_ctrls00_0.readEnergy            1000841400                       # Energy for read commands per rank (pJ)
system.mem_ctrls00_0.writeEnergy            981188640                       # Energy for write commands per rank (pJ)
system.mem_ctrls00_0.refreshEnergy       337934560080                       # Energy for refresh commands per rank (pJ)
system.mem_ctrls00_0.actBackEnergy       199088839620                       # Energy for active background per rank (pJ)
system.mem_ctrls00_0.preBackEnergy       2929705987500                       # Energy for precharge background per rank (pJ)
system.mem_ctrls00_0.totalEnergy         3470275384380                       # Total energy per rank (pJ)
system.mem_ctrls00_0.averagePower          670.726036                       # Core power per rank (mW)
system.mem_ctrls00_0.memoryStateTime::IDLE 4873387321500                       # Time in different power states
system.mem_ctrls00_0.memoryStateTime::REF 172768180000                       # Time in different power states
system.mem_ctrls00_0.memoryStateTime::PRE_PDN            0                       # Time in different power states
system.mem_ctrls00_0.memoryStateTime::ACT 127755019000                       # Time in different power states
system.mem_ctrls00_0.memoryStateTime::ACT_PDN            0                       # Time in different power states
system.mem_ctrls00_1.actEnergy              862596000                       # Energy for activate commands per rank (pJ)
system.mem_ctrls00_1.preEnergy              470662500                       # Energy for precharge commands per rank (pJ)
system.mem_ctrls00_1.readEnergy             918980400                       # Energy for read commands per rank (pJ)
system.mem_ctrls00_1.writeEnergy            857679840                       # Energy for write commands per rank (pJ)
system.mem_ctrls00_1.refreshEnergy       337934560080                       # Energy for refresh commands per rank (pJ)
system.mem_ctrls00_1.actBackEnergy       201660268365                       # Energy for active background per rank (pJ)
system.mem_ctrls00_1.preBackEnergy       2927450348250                       # Energy for precharge background per rank (pJ)
system.mem_ctrls00_1.totalEnergy         3470155095435                       # Total energy per rank (pJ)
system.mem_ctrls00_1.averagePower          670.702787                       # Core power per rank (mW)
system.mem_ctrls00_1.memoryStateTime::IDLE 4869620750750                       # Time in different power states
system.mem_ctrls00_1.memoryStateTime::REF 172768180000                       # Time in different power states
system.mem_ctrls00_1.memoryStateTime::PRE_PDN            0                       # Time in different power states
system.mem_ctrls00_1.memoryStateTime::ACT 131519950500                       # Time in different power states
system.mem_ctrls00_1.memoryStateTime::ACT_PDN            0                       # Time in different power states
system.mem_ctrls01.bytes_read::ruby.dir_cntrl1     15368320                       # Number of bytes read from this memory
system.mem_ctrls01.bytes_read::total         15368320                       # Number of bytes read from this memory
system.mem_ctrls01.bytes_written::ruby.dir_cntrl1     15416448                       # Number of bytes written to this memory
system.mem_ctrls01.bytes_written::total      15416448                       # Number of bytes written to this memory
system.mem_ctrls01.num_reads::ruby.dir_cntrl1       240130                       # Number of read requests responded to by this memory
system.mem_ctrls01.num_reads::total            240130                       # Number of read requests responded to by this memory
system.mem_ctrls01.num_writes::ruby.dir_cntrl1       240882                       # Number of write requests responded to by this memory
system.mem_ctrls01.num_writes::total           240882                       # Number of write requests responded to by this memory
system.mem_ctrls01.bw_read::ruby.dir_cntrl1      2970348                       # Total read bandwidth from this memory (bytes/s)
system.mem_ctrls01.bw_read::total             2970348                       # Total read bandwidth from this memory (bytes/s)
system.mem_ctrls01.bw_write::ruby.dir_cntrl1      2979650                       # Write bandwidth from this memory (bytes/s)
system.mem_ctrls01.bw_write::total            2979650                       # Write bandwidth from this memory (bytes/s)
system.mem_ctrls01.bw_total::ruby.dir_cntrl1      5949998                       # Total bandwidth to/from this memory (bytes/s)
system.mem_ctrls01.bw_total::total            5949998                       # Total bandwidth to/from this memory (bytes/s)
system.mem_ctrls01.readReqs                    240130                       # Number of read requests accepted
system.mem_ctrls01.writeReqs                   240882                       # Number of write requests accepted
system.mem_ctrls01.readBursts                  240130                       # Number of DRAM read bursts, including those serviced by the write queue
system.mem_ctrls01.writeBursts                 240882                       # Number of DRAM write bursts, including those merged in the write queue
system.mem_ctrls01.bytesReadDRAM             13238720                       # Total number of bytes read from DRAM
system.mem_ctrls01.bytesReadWrQ               2129600                       # Total number of bytes read from write queue
system.mem_ctrls01.bytesWritten              14731520                       # Total number of bytes written to DRAM
system.mem_ctrls01.bytesReadSys              15368320                       # Total read bytes from the system interface side
system.mem_ctrls01.bytesWrittenSys           15416448                       # Total written bytes from the system interface side
system.mem_ctrls01.servicedByWrQ                33275                       # Number of DRAM read bursts serviced by the write queue
system.mem_ctrls01.mergedWrBursts               10674                       # Number of DRAM write bursts merged with an existing one
system.mem_ctrls01.neitherReadNorWriteReqs            0                       # Number of requests that are neither read nor write
system.mem_ctrls01.perBankRdBursts::0           11416                       # Per bank write bursts
system.mem_ctrls01.perBankRdBursts::1           27286                       # Per bank write bursts
system.mem_ctrls01.perBankRdBursts::2           12033                       # Per bank write bursts
system.mem_ctrls01.perBankRdBursts::3            8141                       # Per bank write bursts
system.mem_ctrls01.perBankRdBursts::4           15332                       # Per bank write bursts
system.mem_ctrls01.perBankRdBursts::5           11693                       # Per bank write bursts
system.mem_ctrls01.perBankRdBursts::6            5443                       # Per bank write bursts
system.mem_ctrls01.perBankRdBursts::7           11865                       # Per bank write bursts
system.mem_ctrls01.perBankRdBursts::8           23573                       # Per bank write bursts
system.mem_ctrls01.perBankRdBursts::9           17866                       # Per bank write bursts
system.mem_ctrls01.perBankRdBursts::10           7054                       # Per bank write bursts
system.mem_ctrls01.perBankRdBursts::11          12246                       # Per bank write bursts
system.mem_ctrls01.perBankRdBursts::12          16674                       # Per bank write bursts
system.mem_ctrls01.perBankRdBursts::13           7705                       # Per bank write bursts
system.mem_ctrls01.perBankRdBursts::14          11379                       # Per bank write bursts
system.mem_ctrls01.perBankRdBursts::15           7149                       # Per bank write bursts
system.mem_ctrls01.perBankWrBursts::0           12362                       # Per bank write bursts
system.mem_ctrls01.perBankWrBursts::1           31258                       # Per bank write bursts
system.mem_ctrls01.perBankWrBursts::2           13497                       # Per bank write bursts
system.mem_ctrls01.perBankWrBursts::3            9328                       # Per bank write bursts
system.mem_ctrls01.perBankWrBursts::4           16941                       # Per bank write bursts
system.mem_ctrls01.perBankWrBursts::5           12739                       # Per bank write bursts
system.mem_ctrls01.perBankWrBursts::6            5787                       # Per bank write bursts
system.mem_ctrls01.perBankWrBursts::7           14271                       # Per bank write bursts
system.mem_ctrls01.perBankWrBursts::8           25747                       # Per bank write bursts
system.mem_ctrls01.perBankWrBursts::9           18415                       # Per bank write bursts
system.mem_ctrls01.perBankWrBursts::10           7474                       # Per bank write bursts
system.mem_ctrls01.perBankWrBursts::11          15112                       # Per bank write bursts
system.mem_ctrls01.perBankWrBursts::12          19540                       # Per bank write bursts
system.mem_ctrls01.perBankWrBursts::13           8000                       # Per bank write bursts
system.mem_ctrls01.perBankWrBursts::14          12123                       # Per bank write bursts
system.mem_ctrls01.perBankWrBursts::15           7586                       # Per bank write bursts
system.mem_ctrls01.numRdRetry                       0                       # Number of times read queue was full causing retry
system.mem_ctrls01.numWrRetry                       0                       # Number of times write queue was full causing retry
system.mem_ctrls01.totGap                5173885251500                       # Total gap between requests
system.mem_ctrls01.readPktSize::0                   0                       # Read request sizes (log2)
system.mem_ctrls01.readPktSize::1                   0                       # Read request sizes (log2)
system.mem_ctrls01.readPktSize::2                   0                       # Read request sizes (log2)
system.mem_ctrls01.readPktSize::3                   0                       # Read request sizes (log2)
system.mem_ctrls01.readPktSize::4                   0                       # Read request sizes (log2)
system.mem_ctrls01.readPktSize::5                   0                       # Read request sizes (log2)
system.mem_ctrls01.readPktSize::6              240130                       # Read request sizes (log2)
system.mem_ctrls01.writePktSize::0                  0                       # Write request sizes (log2)
system.mem_ctrls01.writePktSize::1                  0                       # Write request sizes (log2)
system.mem_ctrls01.writePktSize::2                  0                       # Write request sizes (log2)
system.mem_ctrls01.writePktSize::3                  0                       # Write request sizes (log2)
system.mem_ctrls01.writePktSize::4                  0                       # Write request sizes (log2)
system.mem_ctrls01.writePktSize::5                  0                       # Write request sizes (log2)
system.mem_ctrls01.writePktSize::6             240882                       # Write request sizes (log2)
system.mem_ctrls01.rdQLenPdf::0                203193                       # What read queue length does an incoming req see
system.mem_ctrls01.rdQLenPdf::1                  3623                       # What read queue length does an incoming req see
system.mem_ctrls01.rdQLenPdf::2                    39                       # What read queue length does an incoming req see
system.mem_ctrls01.rdQLenPdf::3                     0                       # What read queue length does an incoming req see
system.mem_ctrls01.rdQLenPdf::4                     0                       # What read queue length does an incoming req see
system.mem_ctrls01.rdQLenPdf::5                     0                       # What read queue length does an incoming req see
system.mem_ctrls01.rdQLenPdf::6                     0                       # What read queue length does an incoming req see
system.mem_ctrls01.rdQLenPdf::7                     0                       # What read queue length does an incoming req see
system.mem_ctrls01.rdQLenPdf::8                     0                       # What read queue length does an incoming req see
system.mem_ctrls01.rdQLenPdf::9                     0                       # What read queue length does an incoming req see
system.mem_ctrls01.rdQLenPdf::10                    0                       # What read queue length does an incoming req see
system.mem_ctrls01.rdQLenPdf::11                    0                       # What read queue length does an incoming req see
system.mem_ctrls01.rdQLenPdf::12                    0                       # What read queue length does an incoming req see
system.mem_ctrls01.rdQLenPdf::13                    0                       # What read queue length does an incoming req see
system.mem_ctrls01.rdQLenPdf::14                    0                       # What read queue length does an incoming req see
system.mem_ctrls01.rdQLenPdf::15                    0                       # What read queue length does an incoming req see
system.mem_ctrls01.rdQLenPdf::16                    0                       # What read queue length does an incoming req see
system.mem_ctrls01.rdQLenPdf::17                    0                       # What read queue length does an incoming req see
system.mem_ctrls01.rdQLenPdf::18                    0                       # What read queue length does an incoming req see
system.mem_ctrls01.rdQLenPdf::19                    0                       # What read queue length does an incoming req see
system.mem_ctrls01.rdQLenPdf::20                    0                       # What read queue length does an incoming req see
system.mem_ctrls01.rdQLenPdf::21                    0                       # What read queue length does an incoming req see
system.mem_ctrls01.rdQLenPdf::22                    0                       # What read queue length does an incoming req see
system.mem_ctrls01.rdQLenPdf::23                    0                       # What read queue length does an incoming req see
system.mem_ctrls01.rdQLenPdf::24                    0                       # What read queue length does an incoming req see
system.mem_ctrls01.rdQLenPdf::25                    0                       # What read queue length does an incoming req see
system.mem_ctrls01.rdQLenPdf::26                    0                       # What read queue length does an incoming req see
system.mem_ctrls01.rdQLenPdf::27                    0                       # What read queue length does an incoming req see
system.mem_ctrls01.rdQLenPdf::28                    0                       # What read queue length does an incoming req see
system.mem_ctrls01.rdQLenPdf::29                    0                       # What read queue length does an incoming req see
system.mem_ctrls01.rdQLenPdf::30                    0                       # What read queue length does an incoming req see
system.mem_ctrls01.rdQLenPdf::31                    0                       # What read queue length does an incoming req see
system.mem_ctrls01.wrQLenPdf::0                     1                       # What write queue length does an incoming req see
system.mem_ctrls01.wrQLenPdf::1                     1                       # What write queue length does an incoming req see
system.mem_ctrls01.wrQLenPdf::2                     1                       # What write queue length does an incoming req see
system.mem_ctrls01.wrQLenPdf::3                     1                       # What write queue length does an incoming req see
system.mem_ctrls01.wrQLenPdf::4                     1                       # What write queue length does an incoming req see
system.mem_ctrls01.wrQLenPdf::5                     1                       # What write queue length does an incoming req see
system.mem_ctrls01.wrQLenPdf::6                     1                       # What write queue length does an incoming req see
system.mem_ctrls01.wrQLenPdf::7                     1                       # What write queue length does an incoming req see
system.mem_ctrls01.wrQLenPdf::8                     1                       # What write queue length does an incoming req see
system.mem_ctrls01.wrQLenPdf::9                     1                       # What write queue length does an incoming req see
system.mem_ctrls01.wrQLenPdf::10                    1                       # What write queue length does an incoming req see
system.mem_ctrls01.wrQLenPdf::11                    1                       # What write queue length does an incoming req see
system.mem_ctrls01.wrQLenPdf::12                    1                       # What write queue length does an incoming req see
system.mem_ctrls01.wrQLenPdf::13                    1                       # What write queue length does an incoming req see
system.mem_ctrls01.wrQLenPdf::14                    1                       # What write queue length does an incoming req see
system.mem_ctrls01.wrQLenPdf::15                11743                       # What write queue length does an incoming req see
system.mem_ctrls01.wrQLenPdf::16                11854                       # What write queue length does an incoming req see
system.mem_ctrls01.wrQLenPdf::17                12497                       # What write queue length does an incoming req see
system.mem_ctrls01.wrQLenPdf::18                12949                       # What write queue length does an incoming req see
system.mem_ctrls01.wrQLenPdf::19                12961                       # What write queue length does an incoming req see
system.mem_ctrls01.wrQLenPdf::20                12957                       # What write queue length does an incoming req see
system.mem_ctrls01.wrQLenPdf::21                12946                       # What write queue length does an incoming req see
system.mem_ctrls01.wrQLenPdf::22                12942                       # What write queue length does an incoming req see
system.mem_ctrls01.wrQLenPdf::23                12936                       # What write queue length does an incoming req see
system.mem_ctrls01.wrQLenPdf::24                12961                       # What write queue length does an incoming req see
system.mem_ctrls01.wrQLenPdf::25                12982                       # What write queue length does an incoming req see
system.mem_ctrls01.wrQLenPdf::26                12963                       # What write queue length does an incoming req see
system.mem_ctrls01.wrQLenPdf::27                12945                       # What write queue length does an incoming req see
system.mem_ctrls01.wrQLenPdf::28                12919                       # What write queue length does an incoming req see
system.mem_ctrls01.wrQLenPdf::29                12916                       # What write queue length does an incoming req see
system.mem_ctrls01.wrQLenPdf::30                12905                       # What write queue length does an incoming req see
system.mem_ctrls01.wrQLenPdf::31                12903                       # What write queue length does an incoming req see
system.mem_ctrls01.wrQLenPdf::32                12903                       # What write queue length does an incoming req see
system.mem_ctrls01.wrQLenPdf::33                   11                       # What write queue length does an incoming req see
system.mem_ctrls01.wrQLenPdf::34                    0                       # What write queue length does an incoming req see
system.mem_ctrls01.wrQLenPdf::35                    0                       # What write queue length does an incoming req see
system.mem_ctrls01.wrQLenPdf::36                    0                       # What write queue length does an incoming req see
system.mem_ctrls01.wrQLenPdf::37                    0                       # What write queue length does an incoming req see
system.mem_ctrls01.wrQLenPdf::38                    0                       # What write queue length does an incoming req see
system.mem_ctrls01.wrQLenPdf::39                    0                       # What write queue length does an incoming req see
system.mem_ctrls01.wrQLenPdf::40                    0                       # What write queue length does an incoming req see
system.mem_ctrls01.wrQLenPdf::41                    0                       # What write queue length does an incoming req see
system.mem_ctrls01.wrQLenPdf::42                    0                       # What write queue length does an incoming req see
system.mem_ctrls01.wrQLenPdf::43                    0                       # What write queue length does an incoming req see
system.mem_ctrls01.wrQLenPdf::44                    0                       # What write queue length does an incoming req see
system.mem_ctrls01.wrQLenPdf::45                    0                       # What write queue length does an incoming req see
system.mem_ctrls01.wrQLenPdf::46                    0                       # What write queue length does an incoming req see
system.mem_ctrls01.wrQLenPdf::47                    0                       # What write queue length does an incoming req see
system.mem_ctrls01.wrQLenPdf::48                    0                       # What write queue length does an incoming req see
system.mem_ctrls01.wrQLenPdf::49                    0                       # What write queue length does an incoming req see
system.mem_ctrls01.wrQLenPdf::50                    0                       # What write queue length does an incoming req see
system.mem_ctrls01.wrQLenPdf::51                    0                       # What write queue length does an incoming req see
system.mem_ctrls01.wrQLenPdf::52                    0                       # What write queue length does an incoming req see
system.mem_ctrls01.wrQLenPdf::53                    0                       # What write queue length does an incoming req see
system.mem_ctrls01.wrQLenPdf::54                    0                       # What write queue length does an incoming req see
system.mem_ctrls01.wrQLenPdf::55                    0                       # What write queue length does an incoming req see
system.mem_ctrls01.wrQLenPdf::56                    0                       # What write queue length does an incoming req see
system.mem_ctrls01.wrQLenPdf::57                    0                       # What write queue length does an incoming req see
system.mem_ctrls01.wrQLenPdf::58                    0                       # What write queue length does an incoming req see
system.mem_ctrls01.wrQLenPdf::59                    0                       # What write queue length does an incoming req see
system.mem_ctrls01.wrQLenPdf::60                    0                       # What write queue length does an incoming req see
system.mem_ctrls01.wrQLenPdf::61                    0                       # What write queue length does an incoming req see
system.mem_ctrls01.wrQLenPdf::62                    0                       # What write queue length does an incoming req see
system.mem_ctrls01.wrQLenPdf::63                    0                       # What write queue length does an incoming req see
system.mem_ctrls01.bytesPerActivate::samples       194587                       # Bytes accessed per row activation
system.mem_ctrls01.bytesPerActivate::mean   143.741565                       # Bytes accessed per row activation
system.mem_ctrls01.bytesPerActivate::gmean   107.942172                       # Bytes accessed per row activation
system.mem_ctrls01.bytesPerActivate::stdev   151.787717                       # Bytes accessed per row activation
system.mem_ctrls01.bytesPerActivate::0-127       104452     53.68%     53.68% # Bytes accessed per row activation
system.mem_ctrls01.bytesPerActivate::128-255        60943     31.32%     85.00% # Bytes accessed per row activation
system.mem_ctrls01.bytesPerActivate::256-383        16613      8.54%     93.54% # Bytes accessed per row activation
system.mem_ctrls01.bytesPerActivate::384-511         5582      2.87%     96.40% # Bytes accessed per row activation
system.mem_ctrls01.bytesPerActivate::512-639         2581      1.33%     97.73% # Bytes accessed per row activation
system.mem_ctrls01.bytesPerActivate::640-767         1038      0.53%     98.26% # Bytes accessed per row activation
system.mem_ctrls01.bytesPerActivate::768-895          521      0.27%     98.53% # Bytes accessed per row activation
system.mem_ctrls01.bytesPerActivate::896-1023          373      0.19%     98.72% # Bytes accessed per row activation
system.mem_ctrls01.bytesPerActivate::1024-1151         2484      1.28%    100.00% # Bytes accessed per row activation
system.mem_ctrls01.bytesPerActivate::total       194587                       # Bytes accessed per row activation
system.mem_ctrls01.rdPerTurnAround::samples        12903                       # Reads before turning the bus around for writes
system.mem_ctrls01.rdPerTurnAround::mean    16.031001                       # Reads before turning the bus around for writes
system.mem_ctrls01.rdPerTurnAround::stdev     3.507876                       # Reads before turning the bus around for writes
system.mem_ctrls01.rdPerTurnAround::0-3            37      0.29%      0.29% # Reads before turning the bus around for writes
system.mem_ctrls01.rdPerTurnAround::4-7           206      1.60%      1.88% # Reads before turning the bus around for writes
system.mem_ctrls01.rdPerTurnAround::8-11          899      6.97%      8.85% # Reads before turning the bus around for writes
system.mem_ctrls01.rdPerTurnAround::12-15         3645     28.25%     37.10% # Reads before turning the bus around for writes
system.mem_ctrls01.rdPerTurnAround::16-19         7271     56.35%     93.45% # Reads before turning the bus around for writes
system.mem_ctrls01.rdPerTurnAround::20-23          659      5.11%     98.56% # Reads before turning the bus around for writes
system.mem_ctrls01.rdPerTurnAround::24-27          104      0.81%     99.36% # Reads before turning the bus around for writes
system.mem_ctrls01.rdPerTurnAround::28-31           28      0.22%     99.58% # Reads before turning the bus around for writes
system.mem_ctrls01.rdPerTurnAround::32-35           26      0.20%     99.78% # Reads before turning the bus around for writes
system.mem_ctrls01.rdPerTurnAround::36-39           21      0.16%     99.95% # Reads before turning the bus around for writes
system.mem_ctrls01.rdPerTurnAround::40-43            6      0.05%     99.99% # Reads before turning the bus around for writes
system.mem_ctrls01.rdPerTurnAround::64-67            1      0.01%    100.00% # Reads before turning the bus around for writes
system.mem_ctrls01.rdPerTurnAround::total        12903                       # Reads before turning the bus around for writes
system.mem_ctrls01.wrPerTurnAround::samples        12903                       # Writes before turning the bus around for reads
system.mem_ctrls01.wrPerTurnAround::mean    17.839262                       # Writes before turning the bus around for reads
system.mem_ctrls01.wrPerTurnAround::gmean    17.829707                       # Writes before turning the bus around for reads
system.mem_ctrls01.wrPerTurnAround::stdev     0.566506                       # Writes before turning the bus around for reads
system.mem_ctrls01.wrPerTurnAround::16           1060      8.22%      8.22% # Writes before turning the bus around for reads
system.mem_ctrls01.wrPerTurnAround::17             92      0.71%      8.93% # Writes before turning the bus around for reads
system.mem_ctrls01.wrPerTurnAround::18          11615     90.02%     98.95% # Writes before turning the bus around for reads
system.mem_ctrls01.wrPerTurnAround::19            134      1.04%     99.98% # Writes before turning the bus around for reads
system.mem_ctrls01.wrPerTurnAround::20              2      0.02%    100.00% # Writes before turning the bus around for reads
system.mem_ctrls01.wrPerTurnAround::total        12903                       # Writes before turning the bus around for reads
system.mem_ctrls01.totQLat                 2430076250                       # Total ticks spent queuing
system.mem_ctrls01.totMemAccLat            6308607500                       # Total ticks spent from burst creation until serviced by the DRAM
system.mem_ctrls01.totBusLat               1034275000                       # Total ticks spent in databus transfers
system.mem_ctrls01.avgQLat                   11747.73                       # Average queueing delay per DRAM burst
system.mem_ctrls01.avgBusLat                  5000.00                       # Average bus latency per DRAM burst
system.mem_ctrls01.avgMemAccLat              30497.73                       # Average memory access latency per DRAM burst
system.mem_ctrls01.avgRdBW                       2.56                       # Average DRAM read bandwidth in MiByte/s
system.mem_ctrls01.avgWrBW                       2.85                       # Average achieved write bandwidth in MiByte/s
system.mem_ctrls01.avgRdBWSys                    2.97                       # Average system read bandwidth in MiByte/s
system.mem_ctrls01.avgWrBWSys                    2.98                       # Average system write bandwidth in MiByte/s
system.mem_ctrls01.peakBW                    12800.00                       # Theoretical peak bandwidth in MiByte/s
system.mem_ctrls01.busUtil                       0.04                       # Data bus utilization in percentage
system.mem_ctrls01.busUtilRead                   0.02                       # Data bus utilization in percentage for reads
system.mem_ctrls01.busUtilWrite                  0.02                       # Data bus utilization in percentage for writes
system.mem_ctrls01.avgRdQLen                     1.00                       # Average read queue length when enqueuing
system.mem_ctrls01.avgWrQLen                    24.71                       # Average write queue length when enqueuing
system.mem_ctrls01.readRowHits                  93617                       # Number of row buffer hits during reads
system.mem_ctrls01.writeRowHits                148831                       # Number of row buffer hits during writes
system.mem_ctrls01.readRowHitRate               45.26                       # Row buffer hit rate for reads
system.mem_ctrls01.writeRowHitRate              64.65                       # Row buffer hit rate for writes
system.mem_ctrls01.avgGap                 10756249.85                       # Average gap between requests
system.mem_ctrls01.pageHitRate                  55.47                       # Row buffer hit rate, read and write combined
system.mem_ctrls01_0.actEnergy              782354160                       # Energy for activate commands per rank (pJ)
system.mem_ctrls01_0.preEnergy              426879750                       # Energy for precharge commands per rank (pJ)
system.mem_ctrls01_0.readEnergy             805030200                       # Energy for read commands per rank (pJ)
system.mem_ctrls01_0.writeEnergy            752865840                       # Energy for write commands per rank (pJ)
system.mem_ctrls01_0.refreshEnergy       337934560080                       # Energy for refresh commands per rank (pJ)
system.mem_ctrls01_0.actBackEnergy       193728921570                       # Energy for active background per rank (pJ)
system.mem_ctrls01_0.preBackEnergy       2934407670000                       # Energy for precharge background per rank (pJ)
system.mem_ctrls01_0.totalEnergy         3468838281600                       # Total energy per rank (pJ)
system.mem_ctrls01_0.averagePower          670.448276                       # Core power per rank (mW)
system.mem_ctrls01_0.memoryStateTime::IDLE 4881225762250                       # Time in different power states
system.mem_ctrls01_0.memoryStateTime::REF 172768180000                       # Time in different power states
system.mem_ctrls01_0.memoryStateTime::PRE_PDN            0                       # Time in different power states
system.mem_ctrls01_0.memoryStateTime::ACT 119914939000                       # Time in different power states
system.mem_ctrls01_0.memoryStateTime::ACT_PDN            0                       # Time in different power states
system.mem_ctrls01_1.actEnergy              688723560                       # Energy for activate commands per rank (pJ)
system.mem_ctrls01_1.preEnergy              375791625                       # Energy for precharge commands per rank (pJ)
system.mem_ctrls01_1.readEnergy             808438800                       # Energy for read commands per rank (pJ)
system.mem_ctrls01_1.writeEnergy            738700560                       # Energy for write commands per rank (pJ)
system.mem_ctrls01_1.refreshEnergy       337934560080                       # Energy for refresh commands per rank (pJ)
system.mem_ctrls01_1.actBackEnergy       195505374735                       # Energy for active background per rank (pJ)
system.mem_ctrls01_1.preBackEnergy       2932849377750                       # Energy for precharge background per rank (pJ)
system.mem_ctrls01_1.totalEnergy         3468900967110                       # Total energy per rank (pJ)
system.mem_ctrls01_1.averagePower          670.460392                       # Core power per rank (mW)
system.mem_ctrls01_1.memoryStateTime::IDLE 4878631471750                       # Time in different power states
system.mem_ctrls01_1.memoryStateTime::REF 172768180000                       # Time in different power states
system.mem_ctrls01_1.memoryStateTime::PRE_PDN            0                       # Time in different power states
system.mem_ctrls01_1.memoryStateTime::ACT 122509229500                       # Time in different power states
system.mem_ctrls01_1.memoryStateTime::ACT_PDN            0                       # Time in different power states
system.mem_ctrls02.bytes_read::ruby.dir_cntrl2     15597568                       # Number of bytes read from this memory
system.mem_ctrls02.bytes_read::total         15597568                       # Number of bytes read from this memory
system.mem_ctrls02.bytes_written::ruby.dir_cntrl2     15646464                       # Number of bytes written to this memory
system.mem_ctrls02.bytes_written::total      15646464                       # Number of bytes written to this memory
system.mem_ctrls02.num_reads::ruby.dir_cntrl2       243712                       # Number of read requests responded to by this memory
system.mem_ctrls02.num_reads::total            243712                       # Number of read requests responded to by this memory
system.mem_ctrls02.num_writes::ruby.dir_cntrl2       244476                       # Number of write requests responded to by this memory
system.mem_ctrls02.num_writes::total           244476                       # Number of write requests responded to by this memory
system.mem_ctrls02.bw_read::ruby.dir_cntrl2      3014657                       # Total read bandwidth from this memory (bytes/s)
system.mem_ctrls02.bw_read::total             3014657                       # Total read bandwidth from this memory (bytes/s)
system.mem_ctrls02.bw_write::ruby.dir_cntrl2      3024107                       # Write bandwidth from this memory (bytes/s)
system.mem_ctrls02.bw_write::total            3024107                       # Write bandwidth from this memory (bytes/s)
system.mem_ctrls02.bw_total::ruby.dir_cntrl2      6038764                       # Total bandwidth to/from this memory (bytes/s)
system.mem_ctrls02.bw_total::total            6038764                       # Total bandwidth to/from this memory (bytes/s)
system.mem_ctrls02.readReqs                    243712                       # Number of read requests accepted
system.mem_ctrls02.writeReqs                   244476                       # Number of write requests accepted
system.mem_ctrls02.readBursts                  243712                       # Number of DRAM read bursts, including those serviced by the write queue
system.mem_ctrls02.writeBursts                 244476                       # Number of DRAM write bursts, including those merged in the write queue
system.mem_ctrls02.bytesReadDRAM             13037440                       # Total number of bytes read from DRAM
system.mem_ctrls02.bytesReadWrQ               2560128                       # Total number of bytes read from write queue
system.mem_ctrls02.bytesWritten              14497792                       # Total number of bytes written to DRAM
system.mem_ctrls02.bytesReadSys              15597568                       # Total read bytes from the system interface side
system.mem_ctrls02.bytesWrittenSys           15646464                       # Total written bytes from the system interface side
system.mem_ctrls02.servicedByWrQ                40002                       # Number of DRAM read bursts serviced by the write queue
system.mem_ctrls02.mergedWrBursts               17919                       # Number of DRAM write bursts merged with an existing one
system.mem_ctrls02.neitherReadNorWriteReqs            0                       # Number of requests that are neither read nor write
system.mem_ctrls02.perBankRdBursts::0           10653                       # Per bank write bursts
system.mem_ctrls02.perBankRdBursts::1           28690                       # Per bank write bursts
system.mem_ctrls02.perBankRdBursts::2           12151                       # Per bank write bursts
system.mem_ctrls02.perBankRdBursts::3            7663                       # Per bank write bursts
system.mem_ctrls02.perBankRdBursts::4           11803                       # Per bank write bursts
system.mem_ctrls02.perBankRdBursts::5           11827                       # Per bank write bursts
system.mem_ctrls02.perBankRdBursts::6            5466                       # Per bank write bursts
system.mem_ctrls02.perBankRdBursts::7            9491                       # Per bank write bursts
system.mem_ctrls02.perBankRdBursts::8           22118                       # Per bank write bursts
system.mem_ctrls02.perBankRdBursts::9           18908                       # Per bank write bursts
system.mem_ctrls02.perBankRdBursts::10           6639                       # Per bank write bursts
system.mem_ctrls02.perBankRdBursts::11          11496                       # Per bank write bursts
system.mem_ctrls02.perBankRdBursts::12          18434                       # Per bank write bursts
system.mem_ctrls02.perBankRdBursts::13           7955                       # Per bank write bursts
system.mem_ctrls02.perBankRdBursts::14          13109                       # Per bank write bursts
system.mem_ctrls02.perBankRdBursts::15           7307                       # Per bank write bursts
system.mem_ctrls02.perBankWrBursts::0           11255                       # Per bank write bursts
system.mem_ctrls02.perBankWrBursts::1           32013                       # Per bank write bursts
system.mem_ctrls02.perBankWrBursts::2           13900                       # Per bank write bursts
system.mem_ctrls02.perBankWrBursts::3            8342                       # Per bank write bursts
system.mem_ctrls02.perBankWrBursts::4           12293                       # Per bank write bursts
system.mem_ctrls02.perBankWrBursts::5           12967                       # Per bank write bursts
system.mem_ctrls02.perBankWrBursts::6            5986                       # Per bank write bursts
system.mem_ctrls02.perBankWrBursts::7           10811                       # Per bank write bursts
system.mem_ctrls02.perBankWrBursts::8           25052                       # Per bank write bursts
system.mem_ctrls02.perBankWrBursts::9           19854                       # Per bank write bursts
system.mem_ctrls02.perBankWrBursts::10           7045                       # Per bank write bursts
system.mem_ctrls02.perBankWrBursts::11          13764                       # Per bank write bursts
system.mem_ctrls02.perBankWrBursts::12          22796                       # Per bank write bursts
system.mem_ctrls02.perBankWrBursts::13           8283                       # Per bank write bursts
system.mem_ctrls02.perBankWrBursts::14          14309                       # Per bank write bursts
system.mem_ctrls02.perBankWrBursts::15           7858                       # Per bank write bursts
system.mem_ctrls02.numRdRetry                       0                       # Number of times read queue was full causing retry
system.mem_ctrls02.numWrRetry                       0                       # Number of times write queue was full causing retry
system.mem_ctrls02.totGap                5173883781500                       # Total gap between requests
system.mem_ctrls02.readPktSize::0                   0                       # Read request sizes (log2)
system.mem_ctrls02.readPktSize::1                   0                       # Read request sizes (log2)
system.mem_ctrls02.readPktSize::2                   0                       # Read request sizes (log2)
system.mem_ctrls02.readPktSize::3                   0                       # Read request sizes (log2)
system.mem_ctrls02.readPktSize::4                   0                       # Read request sizes (log2)
system.mem_ctrls02.readPktSize::5                   0                       # Read request sizes (log2)
system.mem_ctrls02.readPktSize::6              243712                       # Read request sizes (log2)
system.mem_ctrls02.writePktSize::0                  0                       # Write request sizes (log2)
system.mem_ctrls02.writePktSize::1                  0                       # Write request sizes (log2)
system.mem_ctrls02.writePktSize::2                  0                       # Write request sizes (log2)
system.mem_ctrls02.writePktSize::3                  0                       # Write request sizes (log2)
system.mem_ctrls02.writePktSize::4                  0                       # Write request sizes (log2)
system.mem_ctrls02.writePktSize::5                  0                       # Write request sizes (log2)
system.mem_ctrls02.writePktSize::6             244476                       # Write request sizes (log2)
system.mem_ctrls02.rdQLenPdf::0                199835                       # What read queue length does an incoming req see
system.mem_ctrls02.rdQLenPdf::1                  3857                       # What read queue length does an incoming req see
system.mem_ctrls02.rdQLenPdf::2                    18                       # What read queue length does an incoming req see
system.mem_ctrls02.rdQLenPdf::3                     0                       # What read queue length does an incoming req see
system.mem_ctrls02.rdQLenPdf::4                     0                       # What read queue length does an incoming req see
system.mem_ctrls02.rdQLenPdf::5                     0                       # What read queue length does an incoming req see
system.mem_ctrls02.rdQLenPdf::6                     0                       # What read queue length does an incoming req see
system.mem_ctrls02.rdQLenPdf::7                     0                       # What read queue length does an incoming req see
system.mem_ctrls02.rdQLenPdf::8                     0                       # What read queue length does an incoming req see
system.mem_ctrls02.rdQLenPdf::9                     0                       # What read queue length does an incoming req see
system.mem_ctrls02.rdQLenPdf::10                    0                       # What read queue length does an incoming req see
system.mem_ctrls02.rdQLenPdf::11                    0                       # What read queue length does an incoming req see
system.mem_ctrls02.rdQLenPdf::12                    0                       # What read queue length does an incoming req see
system.mem_ctrls02.rdQLenPdf::13                    0                       # What read queue length does an incoming req see
system.mem_ctrls02.rdQLenPdf::14                    0                       # What read queue length does an incoming req see
system.mem_ctrls02.rdQLenPdf::15                    0                       # What read queue length does an incoming req see
system.mem_ctrls02.rdQLenPdf::16                    0                       # What read queue length does an incoming req see
system.mem_ctrls02.rdQLenPdf::17                    0                       # What read queue length does an incoming req see
system.mem_ctrls02.rdQLenPdf::18                    0                       # What read queue length does an incoming req see
system.mem_ctrls02.rdQLenPdf::19                    0                       # What read queue length does an incoming req see
system.mem_ctrls02.rdQLenPdf::20                    0                       # What read queue length does an incoming req see
system.mem_ctrls02.rdQLenPdf::21                    0                       # What read queue length does an incoming req see
system.mem_ctrls02.rdQLenPdf::22                    0                       # What read queue length does an incoming req see
system.mem_ctrls02.rdQLenPdf::23                    0                       # What read queue length does an incoming req see
system.mem_ctrls02.rdQLenPdf::24                    0                       # What read queue length does an incoming req see
system.mem_ctrls02.rdQLenPdf::25                    0                       # What read queue length does an incoming req see
system.mem_ctrls02.rdQLenPdf::26                    0                       # What read queue length does an incoming req see
system.mem_ctrls02.rdQLenPdf::27                    0                       # What read queue length does an incoming req see
system.mem_ctrls02.rdQLenPdf::28                    0                       # What read queue length does an incoming req see
system.mem_ctrls02.rdQLenPdf::29                    0                       # What read queue length does an incoming req see
system.mem_ctrls02.rdQLenPdf::30                    0                       # What read queue length does an incoming req see
system.mem_ctrls02.rdQLenPdf::31                    0                       # What read queue length does an incoming req see
system.mem_ctrls02.wrQLenPdf::0                     1                       # What write queue length does an incoming req see
system.mem_ctrls02.wrQLenPdf::1                     1                       # What write queue length does an incoming req see
system.mem_ctrls02.wrQLenPdf::2                     1                       # What write queue length does an incoming req see
system.mem_ctrls02.wrQLenPdf::3                     1                       # What write queue length does an incoming req see
system.mem_ctrls02.wrQLenPdf::4                     1                       # What write queue length does an incoming req see
system.mem_ctrls02.wrQLenPdf::5                     1                       # What write queue length does an incoming req see
system.mem_ctrls02.wrQLenPdf::6                     1                       # What write queue length does an incoming req see
system.mem_ctrls02.wrQLenPdf::7                     1                       # What write queue length does an incoming req see
system.mem_ctrls02.wrQLenPdf::8                     1                       # What write queue length does an incoming req see
system.mem_ctrls02.wrQLenPdf::9                     1                       # What write queue length does an incoming req see
system.mem_ctrls02.wrQLenPdf::10                    1                       # What write queue length does an incoming req see
system.mem_ctrls02.wrQLenPdf::11                    1                       # What write queue length does an incoming req see
system.mem_ctrls02.wrQLenPdf::12                    1                       # What write queue length does an incoming req see
system.mem_ctrls02.wrQLenPdf::13                    1                       # What write queue length does an incoming req see
system.mem_ctrls02.wrQLenPdf::14                    1                       # What write queue length does an incoming req see
system.mem_ctrls02.wrQLenPdf::15                11607                       # What write queue length does an incoming req see
system.mem_ctrls02.wrQLenPdf::16                11710                       # What write queue length does an incoming req see
system.mem_ctrls02.wrQLenPdf::17                12363                       # What write queue length does an incoming req see
system.mem_ctrls02.wrQLenPdf::18                12726                       # What write queue length does an incoming req see
system.mem_ctrls02.wrQLenPdf::19                12734                       # What write queue length does an incoming req see
system.mem_ctrls02.wrQLenPdf::20                12739                       # What write queue length does an incoming req see
system.mem_ctrls02.wrQLenPdf::21                12738                       # What write queue length does an incoming req see
system.mem_ctrls02.wrQLenPdf::22                12719                       # What write queue length does an incoming req see
system.mem_ctrls02.wrQLenPdf::23                12709                       # What write queue length does an incoming req see
system.mem_ctrls02.wrQLenPdf::24                12753                       # What write queue length does an incoming req see
system.mem_ctrls02.wrQLenPdf::25                12774                       # What write queue length does an incoming req see
system.mem_ctrls02.wrQLenPdf::26                12770                       # What write queue length does an incoming req see
system.mem_ctrls02.wrQLenPdf::27                12711                       # What write queue length does an incoming req see
[...]
system.ruby.Directory_Controller.I.DMA_READ::total           33                      
system.ruby.Directory_Controller.I.DMA_WRITE |         826      6.26%      6.26% |         826      6.26%     12.52% |         826      6.26%     18.78% |         826      6.26%     25.03% |         826      6.26%     31.29% |         826      6.26%     37.55% |         826      6.26%     43.81% |         826      6.26%     50.07% |         824      6.24%     56.31% |         824      6.24%     62.55% |         823      6.24%     68.79% |         823      6.24%     75.03% |         824      6.24%     81.27% |         824      6.24%     87.51% |         824      6.24%     93.76% |         824      6.24%    100.00%
system.ruby.Directory_Controller.I.DMA_WRITE::total        13198                      
system.ruby.Directory_Controller.M.GETX  |      118715      9.51%      9.51% |       68605      5.50%     15.01% |      111809      8.96%     23.97% |       69144      5.54%     29.51% |       70761      5.67%     35.18% |       84373      6.76%     41.94% |       77244      6.19%     48.13% |       68283      5.47%     53.60% |       72539      5.81%     59.41% |       79699      6.39%     65.80% |       49719      3.98%     69.78% |       66120      5.30%     75.08% |       78321      6.28%     81.36% |       73135      5.86%     87.22% |       64278      5.15%     92.37% |       95245      7.63%    100.00%
system.ruby.Directory_Controller.M.GETX::total      1247990                      
system.ruby.Directory_Controller.M.PUTX  |      327352      8.76%      8.76% |      240056      6.42%     15.19% |      243650      6.52%     21.71% |      229199      6.13%     27.84% |      231196      6.19%     34.03% |      213010      5.70%     39.73% |      237303      6.35%     46.08% |      199980      5.35%     51.43% |      216870      5.80%     57.24% |      222264      5.95%     63.19% |      213911      5.72%     68.91% |      243819      6.53%     75.44% |      227057      6.08%     81.51% |      218472      5.85%     87.36% |      239486      6.41%     93.77% |      232815      6.23%    100.00%
system.ruby.Directory_Controller.M.PUTX::total      3736440                      
system.ruby.Directory_Controller.M.PUTX_NotOwner |          53     21.03%     21.03% |           5      1.98%     23.02% |         164     65.08%     88.10% |           2      0.79%     88.89% |           5      1.98%     90.87% |           3      1.19%     92.06% |           1      0.40%     92.46% |           0      0.00%     92.46% |           9      3.57%     96.03% |           1      0.40%     96.43% |           2      0.79%     97.22% |           2      0.79%     98.02% |           1      0.40%     98.41% |           3      1.19%     99.60% |           0      0.00%     99.60% |           1      0.40%    100.00%
system.ruby.Directory_Controller.M.PUTX_NotOwner::total          252                      
system.ruby.Directory_Controller.M.DMA_READ |          50    100.00%    100.00% |           0      0.00%    100.00% |           0      0.00%    100.00% |           0      0.00%    100.00% |           0      0.00%    100.00% |           0      0.00%    100.00% |           0      0.00%    100.00% |           0      0.00%    100.00% |           0      0.00%    100.00% |           0      0.00%    100.00% |           0      0.00%    100.00% |           0      0.00%    100.00% |           0      0.00%    100.00% |           0      0.00%    100.00% |           0      0.00%    100.00% |           0      0.00%    100.00%
system.ruby.Directory_Controller.M.DMA_READ::total           50                      
system.ruby.Directory_Controller.M.DMA_WRITE |           0      0.00%      0.00% |           0      0.00%      0.00% |           0      0.00%      0.00% |           0      0.00%      0.00% |           0      0.00%      0.00% |           0      0.00%      0.00% |           0      0.00%      0.00% |           0      0.00%      0.00% |           0      0.00%      0.00% |           0      0.00%      0.00% |           1     50.00%     50.00% |           1     50.00%    100.00% |           0      0.00%    100.00% |           0      0.00%    100.00% |           0      0.00%    100.00% |           0      0.00%    100.00%
system.ruby.Directory_Controller.M.DMA_WRITE::total            2                      
system.ruby.Directory_Controller.M_DRD.PUTX |          50    100.00%    100.00% |           0      0.00%    100.00% |           0      0.00%    100.00% |           0      0.00%    100.00% |           0      0.00%    100.00% |           0      0.00%    100.00% |           0      0.00%    100.00% |           0      0.00%    100.00% |           0      0.00%    100.00% |           0      0.00%    100.00% |           0      0.00%    100.00% |           0      0.00%    100.00% |           0      0.00%    100.00% |           0      0.00%    100.00% |           0      0.00%    100.00% |           0      0.00%    100.00%
system.ruby.Directory_Controller.M_DRD.PUTX::total           50                      
system.ruby.Directory_Controller.M_DWR.PUTX |           0      0.00%      0.00% |           0      0.00%      0.00% |           0      0.00%      0.00% |           0      0.00%      0.00% |           0      0.00%      0.00% |           0      0.00%      0.00% |           0      0.00%      0.00% |           0      0.00%      0.00% |           0      0.00%      0.00% |           0      0.00%      0.00% |           1     50.00%     50.00% |           1     50.00%    100.00% |           0      0.00%    100.00% |           0      0.00%    100.00% |           0      0.00%    100.00% |           0      0.00%    100.00%
system.ruby.Directory_Controller.M_DWR.PUTX::total            2                      
system.ruby.Directory_Controller.M_DWRI.Memory_Ack |           0      0.00%      0.00% |           0      0.00%      0.00% |           0      0.00%      0.00% |           0      0.00%      0.00% |           0      0.00%      0.00% |           0      0.00%      0.00% |           0      0.00%      0.00% |           0      0.00%      0.00% |           0      0.00%      0.00% |           0      0.00%      0.00% |           1     50.00%     50.00% |           1     50.00%    100.00% |           0      0.00%    100.00% |           0      0.00%    100.00% |           0      0.00%    100.00% |           0      0.00%    100.00%
system.ruby.Directory_Controller.M_DWRI.Memory_Ack::total            2                      
system.ruby.Directory_Controller.M_DRDI.Memory_Ack |          50    100.00%    100.00% |           0      0.00%    100.00% |           0      0.00%    100.00% |           0      0.00%    100.00% |           0      0.00%    100.00% |           0      0.00%    100.00% |           0      0.00%    100.00% |           0      0.00%    100.00% |           0      0.00%    100.00% |           0      0.00%    100.00% |           0      0.00%    100.00% |           0      0.00%    100.00% |           0      0.00%    100.00% |           0      0.00%    100.00% |           0      0.00%    100.00% |           0      0.00%    100.00%
system.ruby.Directory_Controller.M_DRDI.Memory_Ack::total           50                      
system.ruby.Directory_Controller.IM.GETX |         242      7.31%      7.31% |         188      5.68%     12.99% |         231      6.98%     19.97% |         201      6.07%     26.04% |         290      8.76%     34.80% |         232      7.01%     41.81% |         150      4.53%     46.34% |          67      2.02%     48.37% |          99      2.99%     51.36% |         199      6.01%     57.37% |         302      9.12%     66.50% |         234      7.07%     73.56% |         158      4.77%     78.34% |          92      2.78%     81.12% |         146      4.41%     85.53% |         479     14.47%    100.00%
system.ruby.Directory_Controller.IM.GETX::total         3310                      
system.ruby.Directory_Controller.IM.Memory_Data |      327469      8.76%      8.76% |      240130      6.42%     15.19% |      243712      6.52%     21.71% |      229261      6.13%     27.84% |      231263      6.19%     34.03% |      213078      5.70%     39.73% |      237367      6.35%     46.08% |      200048      5.35%     51.43% |      216941      5.80%     57.24% |      222328      5.95%     63.19% |      213983      5.73%     68.91% |      243886      6.53%     75.44% |      227124      6.08%     81.51% |      218536      5.85%     87.36% |      239547      6.41%     93.77% |      232879      6.23%    100.00%
system.ruby.Directory_Controller.IM.Memory_Data::total      3737552                      
system.ruby.Directory_Controller.MI.GETX |          52     34.67%     34.67% |           1      0.67%     35.33% |          86     57.33%     92.67% |           3      2.00%     94.67% |           1      0.67%     95.33% |           1      0.67%     96.00% |           0      0.00%     96.00% |           3      2.00%     98.00% |           1      0.67%     98.67% |           2      1.33%    100.00% |           0      0.00%    100.00% |           0      0.00%    100.00% |           0      0.00%    100.00% |           0      0.00%    100.00% |           0      0.00%    100.00% |           0      0.00%    100.00%
system.ruby.Directory_Controller.MI.GETX::total          150                      
system.ruby.Directory_Controller.MI.Memory_Ack |      327352      8.76%      8.76% |      240056      6.42%     15.19% |      243650      6.52%     21.71% |      229199      6.13%     27.84% |      231196      6.19%     34.03% |      213010      5.70%     39.73% |      237303      6.35%     46.08% |      199980      5.35%     51.43% |      216870      5.80%     57.24% |      222264      5.95%     63.19% |      213911      5.72%     68.91% |      243819      6.53%     75.44% |      227057      6.08%     81.51% |      218472      5.85%     87.36% |      239486      6.41%     93.77% |      232815      6.23%    100.00%
system.ruby.Directory_Controller.MI.Memory_Ack::total      3736440                      
system.ruby.Directory_Controller.ID.Memory_Data |          33    100.00%    100.00% |           0      0.00%    100.00% |           0      0.00%    100.00% |           0      0.00%    100.00% |           0      0.00%    100.00% |           0      0.00%    100.00% |           0      0.00%    100.00% |           0      0.00%    100.00% |           0      0.00%    100.00% |           0      0.00%    100.00% |           0      0.00%    100.00% |           0      0.00%    100.00% |           0      0.00%    100.00% |           0      0.00%    100.00% |           0      0.00%    100.00% |           0      0.00%    100.00%
system.ruby.Directory_Controller.ID.Memory_Data::total           33                      
system.ruby.Directory_Controller.ID_W.Memory_Ack |         826      6.26%      6.26% |         826      6.26%     12.52% |         826      6.26%     18.78% |         826      6.26%     25.03% |         826      6.26%     31.29% |         826      6.26%     37.55% |         826      6.26%     43.81% |         826      6.26%     50.07% |         824      6.24%     56.31% |         824      6.24%     62.55% |         823      6.24%     68.79% |         823      6.24%     75.03% |         824      6.24%     81.27% |         824      6.24%     87.51% |         824      6.24%     93.76% |         824      6.24%    100.00%
system.ruby.Directory_Controller.ID_W.Memory_Ack::total        13198                      
system.ruby.DMA_Controller.ReadRequest   |          83    100.00%    100.00% |           0      0.00%    100.00%
system.ruby.DMA_Controller.ReadRequest::total           83                      
system.ruby.DMA_Controller.WriteRequest  |       13200    100.00%    100.00% |           0      0.00%    100.00%
system.ruby.DMA_Controller.WriteRequest::total        13200                      
system.ruby.DMA_Controller.Data          |          83    100.00%    100.00% |           0      0.00%    100.00%
system.ruby.DMA_Controller.Data::total             83                      
system.ruby.DMA_Controller.Ack           |       13200    100.00%    100.00% |           0      0.00%    100.00%
system.ruby.DMA_Controller.Ack::total           13200                      
system.ruby.DMA_Controller.READY.ReadRequest |          83    100.00%    100.00% |           0      0.00%    100.00%
system.ruby.DMA_Controller.READY.ReadRequest::total           83                      
system.ruby.DMA_Controller.READY.WriteRequest |       13200    100.00%    100.00% |           0      0.00%    100.00%
system.ruby.DMA_Controller.READY.WriteRequest::total        13200                      
system.ruby.DMA_Controller.BUSY_RD.Data  |          83    100.00%    100.00% |           0      0.00%    100.00%
system.ruby.DMA_Controller.BUSY_RD.Data::total           83                      
system.ruby.DMA_Controller.BUSY_WR.Ack   |       13200    100.00%    100.00% |           0      0.00%    100.00%
system.ruby.DMA_Controller.BUSY_WR.Ack::total        13200                      
system.ruby.L1Cache_Controller.Load      |     8458198     40.45%     40.45% |     3395715     16.24%     56.69% |     1803155      8.62%     65.31% |     7254762     34.69%    100.00%
system.ruby.L1Cache_Controller.Load::total     20911830                      
system.ruby.L1Cache_Controller.Ifetch    |     7808364     43.43%     43.43% |     3222300     17.92%     61.35% |     1444687      8.04%     69.39% |     5504529     30.61%    100.00%
system.ruby.L1Cache_Controller.Ifetch::total     17979880                      
system.ruby.L1Cache_Controller.Store     |     7396398     55.81%     55.81% |     2254665     17.01%     72.82% |      661387      4.99%     77.81% |     2940261     22.19%    100.00%
system.ruby.L1Cache_Controller.Store::total     13252711                      
system.ruby.L1Cache_Controller.Data      |     1878880     37.69%     37.69% |      982771     19.71%     57.40% |      316409      6.35%     63.75% |     1807482     36.25%    100.00%
system.ruby.L1Cache_Controller.Data::total      4985542                      
system.ruby.L1Cache_Controller.Fwd_GETX  |      232026     18.59%     18.59% |      384049     30.77%     49.37% |      281885     22.59%     71.95% |      350030     28.05%    100.00%
system.ruby.L1Cache_Controller.Fwd_GETX::total      1247990                      
system.ruby.L1Cache_Controller.Inv       |          14     13.46%     13.46% |          54     51.92%     65.38% |          12     11.54%     76.92% |          24     23.08%    100.00%
system.ruby.L1Cache_Controller.Inv::total          104                      
system.ruby.L1Cache_Controller.Replacement |     1686203     42.69%     42.69% |      686106     17.37%     60.06% |       53817      1.36%     61.42% |     1524080     38.58%    100.00%
system.ruby.L1Cache_Controller.Replacement::total      3950206                      
system.ruby.L1Cache_Controller.Writeback_Ack |     1646654     44.07%     44.07% |      598469     16.02%     60.09% |       34013      0.91%     61.00% |     1457356     39.00%    100.00%
system.ruby.L1Cache_Controller.Writeback_Ack::total      3736492                      
system.ruby.L1Cache_Controller.Writeback_Nack |          11      4.37%      4.37% |         166     65.87%     70.24% |          18      7.14%     77.38% |          57     22.62%    100.00%
system.ruby.L1Cache_Controller.Writeback_Nack::total          252                      
system.ruby.L1Cache_Controller.I.Load    |      654536     33.08%     33.08% |      204190     10.32%     43.40% |       80270      4.06%     47.46% |     1039702     52.54%    100.00%
system.ruby.L1Cache_Controller.I.Load::total      1978698                      
system.ruby.L1Cache_Controller.I.Ifetch  |      680525     32.64%     32.64% |      509825     24.45%     57.09% |      227098     10.89%     67.98% |      667625     32.02%    100.00%
system.ruby.L1Cache_Controller.I.Ifetch::total      2085073                      
system.ruby.L1Cache_Controller.I.Store   |      543819     59.00%     59.00% |      268756     29.16%     88.15% |        9041      0.98%     89.13% |      100155     10.87%    100.00%
system.ruby.L1Cache_Controller.I.Store::total       921771                      
system.ruby.L1Cache_Controller.I.Replacement |       39545     18.52%     18.52% |       87498     40.98%     59.50% |       19792      9.27%     68.77% |       66679     31.23%    100.00%
system.ruby.L1Cache_Controller.I.Replacement::total       213514                      
system.ruby.L1Cache_Controller.II.Writeback_Nack |          11      4.37%      4.37% |         166     65.87%     70.24% |          18      7.14%     77.38% |          57     22.62%    100.00%
system.ruby.L1Cache_Controller.II.Writeback_Nack::total          252                      
system.ruby.L1Cache_Controller.M.Load    |     7803662     41.22%     41.22% |     3191525     16.86%     58.07% |     1722885      9.10%     67.17% |     6215060     32.83%    100.00%
system.ruby.L1Cache_Controller.M.Load::total     18933132                      
system.ruby.L1Cache_Controller.M.Ifetch  |     7127839     44.84%     44.84% |     2712475     17.07%     61.91% |     1217589      7.66%     69.57% |     4836904     30.43%    100.00%
system.ruby.L1Cache_Controller.M.Ifetch::total     15894807                      
system.ruby.L1Cache_Controller.M.Store   |     6852579     55.57%     55.57% |     1985909     16.11%     71.68% |      652346      5.29%     76.97% |     2840106     23.03%    100.00%
system.ruby.L1Cache_Controller.M.Store::total     12330940                      
system.ruby.L1Cache_Controller.M.Fwd_GETX |      232015     18.59%     18.59% |      383883     30.77%     49.36% |      281867     22.59%     71.95% |      349973     28.05%    100.00%
system.ruby.L1Cache_Controller.M.Fwd_GETX::total      1247738                      
system.ruby.L1Cache_Controller.M.Inv     |           7     13.46%     13.46% |          27     51.92%     65.38% |           6     11.54%     76.92% |          12     23.08%    100.00%
system.ruby.L1Cache_Controller.M.Inv::total           52                      
system.ruby.L1Cache_Controller.M.Replacement |     1646658     44.07%     44.07% |      598608     16.02%     60.09% |       34025      0.91%     61.00% |     1457401     39.00%    100.00%
system.ruby.L1Cache_Controller.M.Replacement::total      3736692                      
system.ruby.L1Cache_Controller.MI.Fwd_GETX |          11      4.37%      4.37% |         166     65.87%     70.24% |          18      7.14%     77.38% |          57     22.62%    100.00%
system.ruby.L1Cache_Controller.MI.Fwd_GETX::total          252                      
system.ruby.L1Cache_Controller.MI.Inv    |           7     13.46%     13.46% |          27     51.92%     65.38% |           6     11.54%     76.92% |          12     23.08%    100.00%
system.ruby.L1Cache_Controller.MI.Inv::total           52                      
system.ruby.L1Cache_Controller.MI.Writeback_Ack |     1646654     44.07%     44.07% |      598469     16.02%     60.09% |       34013      0.91%     61.00% |     1457356     39.00%    100.00%
system.ruby.L1Cache_Controller.MI.Writeback_Ack::total      3736492                      
system.ruby.L1Cache_Controller.IS.Data   |     1335061     32.85%     32.85% |      714015     17.57%     50.42% |      307368      7.56%     57.99% |     1707327     42.01%    100.00%
system.ruby.L1Cache_Controller.IS.Data::total      4063771                      
system.ruby.L1Cache_Controller.IM.Data   |      543819     59.00%     59.00% |      268756     29.16%     88.15% |        9041      0.98%     89.13% |      100155     10.87%    100.00%
system.ruby.L1Cache_Controller.IM.Data::total       921771                      

---------- End Simulation Statistics   ----------
